@<TRIPOS>MOLECULE
DAL
 19 18 0 0 0
SMALL
GASTEIGER

@<TRIPOS>ATOM
      1 CA         -0.2267    1.0426   -0.1135 C.3     1  UNL1        0.0963
      2 N           1.1958    0.8751   -0.3865 N.am    1  UNL1       -0.3045
      3 H          -0.7816    0.7161   -1.0007 H       1  UNL1        0.0592
      4 CM         -0.5670    2.4913    0.2197 C.3     1  UNL1       -0.0381
      5 C          -0.5802    0.1040    1.0563 C.2     1  UNL1        0.2305
      6 H1         -0.2316    3.1754   -0.5661 H       1  UNL1        0.0252
      7 H2         -0.0920    2.8020    1.1569 H       1  UNL1        0.0252
      8 H3         -1.6473    2.6273    0.3347 H       1  UNL1        0.0252
      9 O           0.2407   -0.6440    1.5866 O.2     1  UNL1       -0.2740
     10 NHE        -1.8762    0.1094    1.4801 N.am    1  UNL1       -0.3278
     11 C1          1.7870    1.3153   -1.5356 C.2     1  UNL1        0.2105
     12 HN          1.7156    0.2709    0.2454 H       1  UNL1        0.1494
     13 HN1        -2.5975    0.6897    1.0755 H       1  UNL1        0.1450
     14 HN2        -2.1220   -0.5052    2.2458 H       1  UNL1        0.1450
     15 OAC         1.2279    1.9376   -2.4275 O.2     1  UNL1       -0.2761
     16 CAC         2.8551    1.0455   -1.5803 C.3     1  UNL1        0.0122
     17 HC1         3.1242    0.5067   -0.6959 H       1  UNL1        0.0322
     18 HC2         3.4451    1.9355   -1.6491 H       1  UNL1        0.0322
     19 HC3         3.0326    0.4326   -2.4392 H       1  UNL1        0.0322
@<TRIPOS>BOND
     1     1     2    1
     2     1     3    1
     3     1     4    1
     4     1     5    1
     5     4     6    1
     6     4     7    1
     7     4     8    1
     8     5     9    2
     9     5    10   am
    10     2    11   am
    11     2    12    1
    12    10    13    1
    13    10    14    1
    14    11    15    2
    15    11    16    1
    16    16    17    1
    17    16    18    1
    18    16    19    1
